# generated using pymatgen
data_MnCl6
_symmetry_space_group_name_H-M   'P 1'
_cell_length_a   10.42722645
_cell_length_b   8.65099559
_cell_length_c   48.36092996
_cell_angle_alpha   90.00000000
_cell_angle_beta   90.00000000
_cell_angle_gamma   127.06067398
_symmetry_Int_Tables_number   1
_chemical_formula_structural   MnCl6
_chemical_formula_sum   'Mn1 Cl6'
_cell_volume   3481.21794464
_cell_formula_units_Z   1
loop_
 _symmetry_equiv_pos_site_id
 _symmetry_equiv_pos_as_xyz
  1  'x, y, z'
loop_
 _atom_site_type_symbol
 _atom_site_label
 _atom_site_symmetry_multiplicity
 _atom_site_fract_x
 _atom_site_fract_y
 _atom_site_fract_z
 _atom_site_occupancy
  Mn  Mn0  1  -0.00000000  -0.00000000  -0.00000000  1
  Cl  Cl1  1  -0.00000000  -0.00000000  0.75001940  1
  Cl  Cl2  1  -0.00000000  -0.00000000  0.24998060  1
  Cl  Cl3  1  0.73746742  0.77344965  -0.00000000  1
  Cl  Cl4  1  0.26253258  0.22655035  -0.00000000  1
  Cl  Cl5  1  0.96401777  0.22655035  -0.00000000  1
  Cl  Cl6  1  0.03598223  0.77344965  -0.00000000  1
