# generated using pymatgen
data_WS2
_symmetry_space_group_name_H-M   'P 1'
_cell_length_a   3.19073057
_cell_length_b   3.19073045
_cell_length_c   14.20240204
_cell_angle_alpha   90.00000000
_cell_angle_beta   90.00000000
_cell_angle_gamma   59.99999891
_symmetry_Int_Tables_number   1
_chemical_formula_structural   WS2
_chemical_formula_sum   'W2 S4'
_cell_volume   125.21970613
_cell_formula_units_Z   2
loop_
 _symmetry_equiv_pos_site_id
 _symmetry_equiv_pos_as_xyz
  1  'x, y, z'
loop_
 _atom_site_type_symbol
 _atom_site_label
 _atom_site_symmetry_multiplicity
 _atom_site_fract_x
 _atom_site_fract_y
 _atom_site_fract_z
 _atom_site_occupancy
  W  W0  1  0.666666  0.666667  0.750000  1
  W  W1  1  0.333334  0.333333  0.250000  1
  S  S2  1  0.666666  0.666667  0.139241  1
  S  S3  1  0.333334  0.333333  0.639241  1
  S  S4  1  0.666666  0.666667  0.360759  1
  S  S5  1  0.333334  0.333333  0.860759  1
